%chk=CH4.chk
#

sto-6g cc-pVTZ 2

0 1
 C                 -2.18225414   -0.08393285    0.00000000
 H                 -1.82559972   -1.09274285    0.00000000
 H                 -1.82558130    0.42046534    0.87365150
 H                 -1.51557594    0.85886750   -1.63299347
 H                 -4.18225414   -0.08390821    0.00000000

