%chk=H8.chk
#

cc-pVTZ sto-6g 3

0 1
 H                 -2.91118755    2.10843370    0.00000000
 H                 -3.51118755    2.10843370    0.00000000
 H                  0.94423407    1.28227193    0.00000000
 H                  0.34423407    1.28227193    0.00000000
 H                 -1.55146296   -0.71428570    0.00000000
 H                 -2.15146296   -0.71428570    0.00000000
 H                  2.64819274   -2.72805504    0.00000000
 H                  2.04819274   -2.72805504    0.00000000

