%chk=C5NH3_opt.chk
# opt freq m062x/cc-pvtz 

Title Card Required

0 1
 C                  1.13919026    0.45595729    0.02386218
 C                  2.53435026    0.45595729    0.02386218
 C                  3.23188826    1.66370829    0.02386218
 C                  2.53423426    2.87221729    0.02266318
 C                  1.13940926    2.87213929    0.02218418
 H                  3.08385826   -0.49655571    0.02517718
 H                  4.33156826    1.66378829    0.02449618
 H                  3.08443426    3.82436029    0.02260418
 N                  0.44180826    1.66393329    0.02318018

 1 2 1.5 9 1.5
 2 3 1.5 6 1.0
 3 4 1.5 7 1.0
 4 5 1.5 8 1.0
 5 9 1.5
 6
 7
 8
 9

