%chk=benzene.chk
#p

cc-pVDZ

0 1
 C                 -1.06282200   -0.90590700    0.00000500
 C                  0.25326800   -1.37324900    0.00006800
 C                  1.31599300   -0.46745000   -0.00005500
 C                  1.06274500    0.90599500    0.00000800
 C                 -0.25315300    1.37326700    0.00006100
 C                 -1.31603300    0.46734500   -0.00005700
 H                 -1.88970100   -1.61101400   -0.00006600
 H                  0.45015400   -2.44198100    0.00007800
 H                  2.34003700   -0.83107500   -0.00015400
 H                  1.88979600    1.61088900    0.00000700
 H                 -0.45028500    2.44194700    0.00001800
 H                 -2.33999500    0.83122400   -0.00006300

