%chk=decacene.chk
#p

cc-pVDZ

0 1
 C                 12.28574200   -0.71317500    0.00000000
 C                 12.28574200    0.71317500    0.00000000
 C                 11.10396800    1.40757900    0.00000000
 C                  9.84822200    0.72425700    0.00000000
 C                  9.84822200   -0.72425700    0.00000000
 C                 11.10396800   -1.40757900    0.00000000
 C                  8.62648900   -1.40590100    0.00000000
 C                  7.39460800   -0.72734100    0.00000000
 C                  7.39460800    0.72734100    0.00000000
 C                  8.62648900    1.40590100    0.00000000
 C                  6.15771200    1.40824900    0.00000000
 C                  4.93387900    0.73023600    0.00000000
 C                  4.93387900   -0.73023600    0.00000000
 C                  6.15771200   -1.40824900    0.00000000
 C                  3.69326200   -1.40926000    0.00000000
 C                  2.46798600   -0.73153800    0.00000000
 C                  2.46798600    0.73153800    0.00000000
 C                  3.69326200    1.40926000    0.00000000
 C                  1.23090500    1.40935600    0.00000000
 C                  0.00000000    0.73182500    0.00000000
 C                  0.00000000   -0.73182500    0.00000000
 C                  1.23090500   -1.40935600    0.00000000
 C                 -1.23090500   -1.40935600    0.00000000
 C                 -2.46798600   -0.73153800    0.00000000
 C                 -2.46798600    0.73153800    0.00000000
 C                 -1.23090500    1.40935600    0.00000000
 C                 -3.69326200    1.40926000    0.00000000
 C                 -4.93387900    0.73023600    0.00000000
 C                 -4.93387900   -0.73023600    0.00000000
 C                 -3.69326200   -1.40926000    0.00000000
 C                 -6.15771200   -1.40824900    0.00000000
 C                 -7.39460800   -0.72734100    0.00000000
 C                 -7.39460800    0.72734100    0.00000000
 C                 -6.15771200    1.40824900    0.00000000
 C                 -8.62648900    1.40590100    0.00000000
 C                 -9.84822200    0.72425700    0.00000000
 C                 -9.84822200   -0.72425700    0.00000000
 C                 -8.62648900   -1.40590100    0.00000000
 C                -11.10396800   -1.40757900    0.00000000
 C                -12.28574200   -0.71317500    0.00000000
 C                -12.28574200    0.71317500    0.00000000
 C                -11.10396800    1.40757900    0.00000000
 H                 13.23222800   -1.24689200    0.00000000
 H                 13.23222800    1.24689200    0.00000000
 H                 11.10184600    2.49509100    0.00000000
 H                 11.10184600   -2.49509100    0.00000000
 H                  8.62727700   -2.49409200    0.00000000
 H                  8.62727700    2.49409200    0.00000000
 H                  6.15870800    2.49629400    0.00000000
 H                  6.15870800   -2.49629400    0.00000000
 H                  3.69374400   -2.49728700    0.00000000
 H                  3.69374400    2.49728700    0.00000000
 H                  1.23102300    2.49739300    0.00000000
 H                  1.23102300   -2.49739300    0.00000000
 H                 -1.23102300   -2.49739300    0.00000000
 H                 -1.23102300    2.49739300    0.00000000
 H                 -3.69374400    2.49728700    0.00000000
 H                 -3.69374400   -2.49728700    0.00000000
 H                 -6.15870800   -2.49629400    0.00000000
 H                 -6.15870800    2.49629400    0.00000000
 H                 -8.62727700    2.49409200    0.00000000
 H                 -8.62727700   -2.49409200    0.00000000
 H                -11.10184600   -2.49509100    0.00000000
 H                -13.23222800   -1.24689200    0.00000000
 H                -13.23222800    1.24689200    0.00000000
 H                -11.10184600    2.49509100    0.00000000


