%chk=heptacene.chk
#p

cc-pVDZ

0 1
 C                 -8.58789300   -0.71364100    0.00045300
 C                 -8.58789800    0.71362900    0.00036100
 C                 -7.40676600    1.40799400    0.00015100
 C                 -6.14991600    0.72500100   -0.00000200
 C                 -6.14991200   -0.72500200    0.00015100
 C                 -7.40675900   -1.40800000    0.00036600
 C                 -4.93012200   -1.40657300    0.00011000
 C                 -3.69512000   -0.72828000   -0.00009400
 C                 -3.69512200    0.72828600   -0.00026200
 C                 -4.93012800    1.40657600   -0.00017000
 C                 -2.46278800    1.40914900   -0.00039500
 C                 -1.23286500    0.73100100   -0.00029800
 C                 -1.23286400   -0.73099400   -0.00023600
 C                 -2.46278700   -1.40914200   -0.00018000
 C                 -0.00000100   -1.41010300   -0.00040100
 C                  1.23286400   -0.73099800   -0.00027300
 C                  1.23286200    0.73100200   -0.00016900
 C                 -0.00000100    1.41010700   -0.00034400
 C                  2.46278800    1.40914900    0.00004100
 C                  3.69512100    0.72828500    0.00002000
 C                  3.69512000   -0.72828300   -0.00015800
 C                  2.46278600   -1.40914600   -0.00022000
 C                  4.93012200   -1.40657400   -0.00004600
 C                  6.14991400   -0.72500200    0.00012700
 C                  6.14991800    0.72500100    0.00025600
 C                  4.93012800    1.40657500    0.00023000
 C                  7.40676600    1.40799500    0.00021500
 C                  8.58789800    0.71363000    0.00030600
 C                  8.58789500   -0.71363900    0.00026200
 C                  7.40676000   -1.40800000    0.00007900
 H                 -9.53454300   -1.24702600    0.00058100
 H                 -9.53455000    1.24701000    0.00046000
 H                 -7.40466500    2.49548500    0.00011400
 H                 -7.40465200   -2.49549100    0.00042300
 H                 -4.93091600   -2.49472800    0.00016200
 H                 -4.93092500    2.49473100   -0.00018900
 H                 -2.46365800    2.49712700   -0.00046800
 H                 -2.46365700   -2.49712100   -0.00023700
 H                 -0.00000300   -2.49804200   -0.00053000
 H                 -0.00000100    2.49804600   -0.00042900
 H                  2.46365900    2.49712800    0.00012000
 H                  2.46365600   -2.49712400   -0.00019900
 H                  4.93091700   -2.49472800   -0.00005600
 H                  4.93092500    2.49473000    0.00026200
 H                  7.40466600    2.49548500    0.00013500
 H                  9.53455100    1.24701000    0.00031900
 H                  9.53454500   -1.24702400    0.00029100
 H                  7.40465600   -2.49549000   -0.00003100


