%chk=hexacene.chk
#p

cc-pVDZ

0 1
 C                 -7.35065400    0.71575600    0.00000000
 C                 -7.35065500   -0.71575600   -0.00000100
 C                 -6.17304400   -1.40989000   -0.00000100
 C                 -4.91162500   -0.72716200    0.00000000
 C                 -4.91162500    0.72716200    0.00000000
 C                 -6.17304400    1.40989000    0.00000000
 C                 -3.69852900    1.40795300    0.00000000
 C                 -2.45763200    0.72937700    0.00000000
 C                 -2.45763200   -0.72937700    0.00000000
 C                 -3.69852900   -1.40795300    0.00000000
 C                 -1.23213500   -1.40969700    0.00000000
 C                  0.00000000   -0.73061900    0.00000100
 C                  0.00000000    0.73061800    0.00000000
 C                 -1.23213500    1.40969700    0.00000000
 C                  1.23213500    1.40969700    0.00000000
 C                  2.45763100    0.72937700    0.00000100
 C                  2.45763100   -0.72937700    0.00000100
 C                  1.23213500   -1.40969700    0.00000100
 C                  3.69852800   -1.40795300    0.00000000
 C                  4.91162500   -0.72716200    0.00000000
 C                  4.91162500    0.72716200    0.00000000
 C                  3.69852900    1.40795300    0.00000000
 C                  6.17304400    1.40989000    0.00000000
 C                  7.35065500    0.71575600   -0.00000100
 C                  7.35065500   -0.71575600   -0.00000100
 C                  6.17304400   -1.40989000   -0.00000100
 H                 -8.29826900    1.24750000   -0.00000100
 H                 -8.29826900   -1.24749900    0.00000000
 H                 -6.17101500   -2.49739000    0.00000000
 H                 -6.17101500    2.49739000    0.00000000
 H                 -3.69897400    2.49612200    0.00000000
 H                 -3.69897400   -2.49612200    0.00000000
 H                 -1.23252900   -2.49771300    0.00000100
 H                 -1.23252900    2.49771300   -0.00000100
 H                  1.23252900    2.49771300   -0.00000100
 H                  1.23252900   -2.49771300    0.00000100
 H                  3.69897400   -2.49612200    0.00000000
 H                  3.69897400    2.49612200    0.00000100
 H                  6.17101500    2.49739000    0.00000000
 H                  8.29827000    1.24750000   -0.00000100
 H                  8.29827000   -1.24750000   -0.00000100
 H                  6.17101500   -2.49739000    0.00000000


