%chk=naphthalene.chk
#p

cc-pVDZ

0 1
 C                  2.43347515   -0.70849336    0.00000605
 C                  1.24468049   -1.40245308   -0.00001220
 C                 -0.00000466   -0.71652844   -0.00000430
 C                  0.00000955    0.71654145   -0.00001020
 C                  1.24469900    1.40245764   -0.00000420
 C                  2.43349188    0.70846924    0.00001351
 H                 -1.24174558   -2.48973815   -0.00002207
 H                  3.37792042   -1.24517662    0.00000642
 H                  1.24172273   -2.48974029   -0.00001289
 C                 -1.24469564   -1.40244925    0.00000316
 C                 -1.24468726    1.40245041   -0.00001109
 H                  1.24176424    2.48975332    0.00001146
 H                  3.37794597    1.24514408    0.00002004
 C                 -2.43347991    0.70848723    0.00000048
 C                 -2.43348853   -0.70848078    0.00001378
 H                 -1.24173989    2.48973619   -0.00001745
 H                 -3.37792656    1.24517316    0.00002778
 H                 -3.37794173   -1.24515809    0.00001685


