%chk=nonacene.chk
#p

cc-pVDZ

0 1
 C                  0.00000000    0.71881000  -11.05309600
 C                  0.00000000   -0.71881000  -11.05309600
 C                  0.00000000   -1.41372000   -9.87671700
 C                  0.00000000   -0.73036800   -8.60914600
 C                  0.00000000    0.73036800   -8.60914600
 C                  0.00000000    1.41372000   -9.87671700
 C                  0.00000000    1.41181600   -7.40038400
 C                  0.00000000    0.73199000   -6.15139000
 C                  0.00000000   -0.73199000   -6.15139000
 C                  0.00000000   -1.41181600   -7.40038400
 C                  0.00000000   -1.41318000   -4.93166800
 C                  0.00000000   -0.73325000   -3.69155600
 C                  0.00000000    0.73325000   -3.69155600
 C                  0.00000000    1.41318000   -4.93166800
 C                  0.00000000    1.41386300   -2.46540600
 C                  0.00000000    0.73378900   -1.23062200
 C                  0.00000000   -0.73378900   -1.23062200
 C                  0.00000000   -1.41386300   -2.46540600
 C                  0.00000000   -1.41407400   -0.00002000
 C                  0.00000000   -0.73378500    1.23062100
 C                  0.00000000    0.73378500    1.23062100
 C                  0.00000000    1.41407400   -0.00002000
 C                  0.00000000    1.41385600    2.46537200
 C                  0.00000000    0.73323700    3.69155200
 C                  0.00000000   -0.73323700    3.69155200
 C                  0.00000000   -1.41385600    2.46537200
 C                  0.00000000   -1.41317500    4.93164900
 C                  0.00000000   -0.73197500    6.15138700
 C                  0.00000000    0.73197500    6.15138700
 C                  0.00000000    1.41317500    4.93164900
 C                  0.00000000    1.41181800    7.40039100
 C                  0.00000000    0.73035200    8.60916200
 C                  0.00000000   -0.73035200    8.60916200
 C                  0.00000000   -1.41181800    7.40039100
 C                  0.00000000   -1.41372100    9.87674000
 C                  0.00000000   -0.71881200   11.05312700
 C                  0.00000000    0.71881200   11.05312700
 C                  0.00000000    1.41372100    9.87674000
 H                  0.00000000    1.25229900  -12.00625700
 H                  0.00000000   -1.25229900  -12.00625700
 H                  0.00000000   -2.50671700   -9.87572600
 H                  0.00000000    2.50671700   -9.87572600
 H                  0.00000000    2.50538500   -7.40105700
 H                  0.00000000   -2.50538500   -7.40105700
 H                  0.00000000   -2.50657100   -4.93218800
 H                  0.00000000    2.50657100   -4.93218800
 H                  0.00000000    2.50721100   -2.46561900
 H                  0.00000000   -2.50721100   -2.46561900
 H                  0.00000000   -2.50741200    0.00001000
 H                  0.00000000    2.50741200    0.00001000
 H                  0.00000000    2.50720400    2.46563400
 H                  0.00000000   -2.50720400    2.46563400
 H                  0.00000000   -2.50656200    4.93218000
 H                  0.00000000    2.50656200    4.93218000
 H                  0.00000000    2.50538000    7.40100700
 H                  0.00000000   -2.50538000    7.40100700
 H                  0.00000000   -2.50671500    9.87568300
 H                  0.00000000    2.50671500    9.87568300
 H                  0.00000000   -1.25225300   12.00635900
 H                  0.00000000    1.25225300   12.00635900

