%chk=tetracene.chk
#p

cc-pVDZ

0 1
 C                 -3.71114100    1.40931000    0.00000000
 C                 -4.88886600    0.71537900    0.00000000
 C                 -4.88886700   -0.71537900    0.00000000
 C                 -3.71114100   -1.40931000    0.00000000
 C                 -2.45052400   -0.72589300    0.00000000
 C                 -1.23538500   -1.40634300    0.00000000
 C                  0.00000000   -0.72614400    0.00000000
 C                  1.23538500   -1.40634300    0.00000000
 C                  2.45052400   -0.72589300    0.00000000
 C                  3.71114100   -1.40931000    0.00000000
 C                  4.88886700   -0.71537900    0.00000000
 C                  4.88886700    0.71538000    0.00000000
 C                  3.71114100    1.40931000    0.00000000
 C                  2.45052400    0.72589300    0.00000000
 C                  1.23538400    1.40634300    0.00000000
 C                  0.00000000    0.72614300    0.00000000
 C                 -1.23538500    1.40634300    0.00000000
 C                 -2.45052400    0.72589300    0.00000000
 H                 -3.70882600    2.49682900   -0.00000100
 H                 -5.83642800    1.24728800   -0.00000100
 H                 -5.83642800   -1.24728700    0.00000000
 H                 -3.70882700   -2.49682900    0.00000000
 H                 -1.23521400   -2.49457000    0.00000000
 H                  1.23521300   -2.49457000    0.00000000
 H                  3.70882600   -2.49683000   -0.00000100
 H                  5.83642800   -1.24728800   -0.00000100
 H                  5.83642800    1.24728800    0.00000000
 H                  3.70882600    2.49683000    0.00000000
 H                  1.23521300    2.49457000    0.00000000
 H                 -1.23521300    2.49457000    0.00000000






